                                  MODFLOW-2000
      U.S. GEOLOGICAL SURVEY MODULAR FINITE-DIFFERENCE GROUND-WATER FLOW MODEL
                           VERSION 1.19.01 03/25/2010


 This model run produced both GLOBAL and LIST files.  This is the LIST file.

 
 #GMS MODFLOW Simulation                                                         
 #10 May 2011                                                                    
 THE FREE FORMAT OPTION HAS BEEN SELECTED
    3 LAYERS       168 ROWS       369 COLUMNS
    1 STRESS PERIOD(S) IN SIMULATION

 BAS6 -- BASIC PACKAGE, VERSION 6, 1/11/2000 INPUT READ FROM UNIT  703
         15 ELEMENTS IN IR ARRAY ARE USED BY BAS

 WEL6 -- WELL PACKAGE, VERSION 6, 1/11/2000 INPUT READ FROM UNIT  709
 #GMS_HDF5_01
 No named parameters
 MAXIMUM OF     61 ACTIVE WELLS AT ONE TIME
 CELL-BY-CELL FLOWS WILL BE SAVED ON UNIT  740
 AUXILIARY WELL VARIABLE: IFACE           
 AUXILIARY WELL VARIABLE: QFACT           
 AUXILIARY WELL VARIABLE: CELLGRP         
        427 ELEMENTS IN RX ARRAY ARE USED BY WEL

 DRN6 -- DRAIN PACKAGE, VERSION 6, 1/11/2000 INPUT READ FROM UNIT  710
 #GMS_HDF5_01
 No named parameters
 MAXIMUM OF    756 ACTIVE DRAINS AT ONE TIME
 CELL-BY-CELL FLOWS WILL BE SAVED ON UNIT  740
 AUXILIARY DRAIN VARIABLE: IFACE           
 AUXILIARY DRAIN VARIABLE: CONDFACT        
 AUXILIARY DRAIN VARIABLE: CELLGRP         
       6048 ELEMENTS IN RX ARRAY ARE USED BY DRN

 RCH6 -- RECHARGE PACKAGE, VERSION 6, 1/11/2000 INPUT READ FROM UNIT  716
 #GMS_HDF5_01
 No named parameters
 OPTION 3 -- RECHARGE TO HIGHEST ACTIVE NODE IN EACH VERTICAL COLUMN
 CELL-BY-CELL FLOWS WILL BE SAVED ON UNIT  740
      61992 ELEMENTS IN RX ARRAY ARE USED BY RCH
      61992 ELEMENTS IN IR ARRAY ARE USED BY RCH

 CHD6 -- TIME-VARIANT SPECIFIED-HEAD PACKAGE, VERSION 6, 1/11/2000
 INPUT READ FROM UNIT  713
 #GMS_HDF5_01
 No named parameters
 MAXIMUM OF   2508 TIME-VARIANT SPECIFIED-HEAD CELLS AT ONE TIME
 AUXILIARY CHD VARIABLE: SHEADFACT       
 AUXILIARY CHD VARIABLE: EHEADFACT       
 AUXILIARY CHD VARIABLE: CELLGRP         
      20064 ELEMENTS IN RX ARRAY ARE USED BY CHD
 HFB6 -- HORIZONTAL FLOW BARRIER PACKAGE, VERSION 6, 1/11/1000.
   INPUT READ FROM UNIT  707
     0 PARAMETERS DEFINE A MAXIMUM OF      0 HORIZONTAL FLOW BARRIERS
    113 HORIZONTAL FLOW BARRIERS NOT DEFINED BY PARAMETERS
        791 ELEMENTS IN RX ARRAY ARE USED FOR
           HORIZONTAL FLOW BARRIER PACKAGE

      89322  ELEMENTS OF RX ARRAY USED OUT OF      89322
          0  ELEMENTS OF RZ ARRAY USED OUT OF          1
      62007  ELEMENTS OF IR ARRAY USED OUT OF      62007
1
 #GMS MODFLOW Simulation                                                         
 #10 May 2011                                                                    

                1           2           3           4           5           6           7           8           9          10
               11          12          13          14          15          16          17          18          19          20
               21          22          23          24          25          26          27          28          29          30
               31          32          33          34          35          36          37          38          39          40
               41          42          43          44          45          46          47          48          49          50
               51          52          53          54          55          56          57          58          59          60
               61          62          63          64          65          66          67          68          69          70
               71          72          73          74          75          76          77          78          79          80
               81          82          83          84          85          86          87          88          89          90
               91          92          93          94          95          96          97          98          99         100
              101         102         103         104         105         106         107         108         109         110
              111         112         113         114         115         116         117         118         119         120
              121         122         123         124         125         126         127         128         129         130
              131         132         133         134         135         136         137         138         139         140
              141         142         143         144         145         146         147         148         149         150
              151         152         153         154         155         156         157         158         159         160
              161         162         163         164         165         166         167         168         169         170
              171         172         173         174         175         176         177         178         179         180
              181         182         183         184         185         186         187         188         189         190
              191         192         193         194         195         196         197         198         199         200
              201         202         203         204         205         206         207         208         209         210
              211         212         213         214         215         216         217         218         219         220
              221         222         223         224         225         226         227         228         229         230
              231         232         233         234         235         236         237         238         239         240
              241         242         243         244         245         246         247         248         249         250
              251         252         253         254         255         256         257         258         259         260
              261         262         263         264         265         266         267         268         269         270
              271         272         273         274         275         276         277         278         279         280
              281         282         283         284         285         286         287         288         289         290
              291         292         293         294         295         296         297         298         299         300
              301         302         303         304         305         306         307         308         309         310
              311         312         313         314         315         316         317         318         319         320
              321         322         323         324         325         326         327         328         329         330
              331         332         333         334         335         336         337         338         339         340
              341         342         343         344         345         346         347         348         349         350
              351         352         353         354         355         356         357         358         359         360
              361         362         363         364         365         366         367         368         369
 ............................................................................................................................
   1            0           0           0           0           0           0           0           0           0           0
                0           0           0           0           0           0           0           0           0           0
                0           0           0           0           0           0           0           0           0           0
                0           0           0           0           0           0           0           0           0           0
                0           0           0           0           0           0           0           0           0           0
                0           0           0           0           0           0           0           0           0           0
                0           0           0           0           0           0           0           0           0           0
                0           0           0           0           0           0           0           0           0           0
                0           0           0           0           0           0           0           0           0           0
                0           0           0           0           0           0           0           0           0           0
                0           0           0           0           0           0           0           0           0           0
                0           0           0           0           0           0           0           0           0           0
                0           0           0           0           0           0           0           0           0           0
                0           0           0           0           0           0           0           0           0           0
                0           0           0           0           0           0           0           0           0           0
                0           0           0           0           0           0           0           0           0           0
                0           0           0           0           0           0           0           0           0           0
                0           0           0           0           0           0           0           0           0           0
                0           0           0           0           0           0           0           0           0           0
                0           0           0           0           0           0           0           0           0           0
                0           0           0           0           0           0           0           0           0           0
                0           0           0           0           0           0           0           0           0           0
                0           0           0           0           0           0           0           0           0           0
                0           0           0           0           0           0           0           0           0           0
                0           0           0           0           0           0           0           0           0           0
                0           0           0           0           0           0           0           0           0           0
                0           0           0           0           0           0           0           0           0           0
                0           0           0           0           0           0           0           0           0           0
                0           0           0           0           0           0           0           0           0           0
                0           0           0           0           0           0           0           0           0           0
                0           0           0           0           0           0           0           0           0           0
                0           0           0           0           0           0           0           0           0           0
                0           0           0           0           0           0           0           0           0           0
                0           0           0           0           0           0           0           0           0           0
                0           0           0           0           0           0           0           0           0           0
                0           0           0           0           0           0           0           0           0           0
                0           0           0           0           0           0           0           0           0
   2            0           0           0           0           0           0           0           0           0           0
                0           0           0           0           0           0           0           0           0           0
                0           0           0           0           0           0           0           0           0           0
                0           0           0           0           0           0           0           0           0           0
                0           0           0           0           0           0           0           0           0           0
                0           0           0           0           0           0           0           0           0           0
                0           0           0           0           0           0           0           0           0           0
                0           0           0           0           0           0           0           0           0           0
                0           0           0           0           0           0           0           0           0           0
                0           0           0           0           0           0           0           0           0           0
                0           0           0           0           0           0           0           0           0           0
                0           0           0           0           0           0           0           0           0           0
                0           0           0           0           0           0           0           0           0           0
                0           0           0           0           0           0           0           0           0           0
                0           0           0           0           0           0           0           0           0           0
                0           0           0           0           0           0           0           0           0           0
                0           0           0           0           0           0           0           0           0           0
                0           0           0           0           0           0           0           0           0           0
                0           0           0           0           0           0           0           0           0           0
                0           0           0           0           0           0           0           0           0           0
                0           0           0           0           0           0           0           0           0           0
                0           0           0           0           0           0           0           0           0           0
                0           0           0           0           0           0           0           0           0           0
                0           0           0           0           0           0           0           0           0           0
                0           0           0           0           0           0           0           0           0           0
                0           0           0           0           0           0           0           0           0           0
                0           0           0           0           0           0           0           0           0           0
                0           0           0           0           0           0           0           0           0           0
                0           0           0           0           0           0           0           0           0           0
                0           0           0           0           0           0           0           0           0           0
                0           0           0           0           0           0           0           0           0           0
                0           0           0           0           0           0           0           0           0           0
                0           0           0           0           0           0           0           0           0           0
                0           0           0           0           0           0           0           0           0           0
                0           0           0           0           0           0           0           0           0           0
                0           0           0           0           0           0           0           0           0           0
                0           0           0           0           0           0           0           0           0
   3            0           0           0           0           0           0           0           0           0           0
                0           0           0           0           0           0           0           0           0           0
                0           0           0           0           0           0           0           0           0           0
                0           0           0           0           0           0           0           0           0           0
                0           0           0           0           0           0           0           0           0           0
                0           0           0           0           0           0           0           0           0           0
                0           0           0           0           0           0           0           0           0           0
                0           0           0           0           0           0           0           0           0           0
                0           0           0           0           0           0           0           0           0           0
                0           0           0           0           0           0           0           0           0           0
                0           0           0           0           0           0           0           0           0           0
                0           0           0           0           0           0           0           0           0           0
                0           0           0           0           0           0           0           0           0           0
                0           0           0           0           0           0           0           0           0           0
                0           0           0           0           0           0           0           0           0           0
                0           0           0           0           0           0           0           0           0           0
                0           0           0           0           0           0           0           0           0           0
                0           0           0           0           0           0           0           0           0           0
                0           0           0           0           0           0           0           0           0           0
                0           0           0           0           0           0           0           0           0           0
                0           0           0           0           0           0           0           0           0           0
                0           0           0           0           0           0           0           0           0           0
                0           0           0           0           0           0           0           0           0           0
                0           0           0           0           0           0           0           0           0           0
                0           0           0           0           0           0           0           0           0           0
                0           0           0           0           0           0           0           0           0           0
                0           0           0           0           0           0           0           0           0           0
                0           0           0           0           0           0           0           0           0           0
                0           0           0           0           0           0           0           0           0           0
                0           0           0           0           0           0           0           0           0           0
                0           0           0           0           0           0           0           0           0           0
                0           0           0           0           0           0           0           0           0           0
                0           0           0           0           0           0           0           0           0           0
                0           0           0           0           0           0           0           0           0           0
                0           0           0           0           0           0           0           0           0           0
                0           0           0           0           0           0           0           0           0           0
                0           0           0           0           0           0           0           0           0
   4            0           0           0           0           0           0           0           0           0           0
                0           0           0           0           0           0           0           0           0           0
                0           0           0           0           0           0           0           0           0           0
                0           0           0           0           0           0           0           0           0           0
                0           0           0           0           0           0           0           0           0           0
                0           0           0           0           0           0           0           0           0           0
                0           0           0           0           0           0           0           0           0           0
                0           0           0           0           0           0           0           0           0           0
                0           0           0           0           0           0           0           0           0           0
                0           0           0           0           0           0           0           0           0           0
                0           0           0           0           0           0           0           0           0           0
                0           0           0           0           0           0           0           0           0           0
                0           0           0           0           0           0           0           0           0           0
                0           0           0           0           0           0           0           0           0           0
                0           0           0           0           0           0           0           0           0           0
                0           0           0           0           0           0           0           0           0           0
                0           0           0           0           0           0           0           0           0           0
                0           0           0           0           0           0           0           0           0           0
                0           0           0           0           0           0           0           0           0           0
                0           0           0           0           0           0           0           0           0           0
                0           0           0           0           0           0           0           0           0           0
                0           0           0           0           0           0           0           0           0           0
                0           0           0           0           0           0           0           0           0           0
                0           0           0           0           0           0           0           0           0           0
                0           0           0           0           0           0           0           0           0           0
                0           0           0           0           0           0           0           0           0           0
                0           0           0           0           0           0           0           0           0           0
                0           0           0           0           0           0           0           0           0           0
                0           0           0           0           0           0           0           0           0           0
                0           0           0           0           0           0           0           0           0           0
                0           0           0           0           0           0           0           0           0           0
                0           0           0           0           0           0           0           0           0           0
                0           0           0           0           0           0           0           0           0           0
                0           0           0           0           0           0           0           0           0           0
                0           0           0           0           0           0           0           0           0           0
                0           0           0           0           0           0           0           0           0           0
                0           0           0           0           0           0           0           0           0
   5            0           0           0           0           0           0           0           0           0           0
                0           0           0           0           0           0           0           0           0           0
                0           0           1           1           1           1           1           0           0           0
                0           0           0           0           0           0           0           0           0           0
                0           0           0           0           0           0           0           0           0           0
                0           0           0           0           0           0           0           0           0           0
                0           0           0           0           0           0           0           0           0           0
                0           0           0           0           0           0           0           0           0           0
                0           0           0           0           0           0           0           0           0           0
                0           0           0           0           0           0           0           0           0           0
                0           0           0           0           0           0           0           0           0           0
                0           0           0           0           0           0           0           0           0           0
                0           0           0           0           0           0           0           0           0           0
                0           0           0           0           0           0           0           0           0           0
                0           0           0           0           0           0           0           0           0           0
                0           0           0           0           0           0           0           0           0           0
                0           0           0           0           0           0           0           0           0           0
                0           0           0           0           0           0           0           0           0           0
                0           0           0           0           0           0           0           0           0           0
                0           0           0           0           0           0           0           0           0           0
                0           0           0           0           0           0           0           0           0           0
                0           0           0           0           0           0           0           0           0           0
                0           0           0           0           0           0           0           0           0           0
                0           0           0           0           0           0           0           0           0           0
                0           0           0           0           0           0           0           0           0           0
                0           0           0           0           0           0           0           0           0           0
                0           0           0           0           0           0           0           0           0           0
                0           0           0           0           0           0           0           0           0           0
                0           0           0           0           0           0           0           0           0           0
                0           0           0           0           0           0           0           0           0           0
                0           0           0           0           0           0           0           0           0           0
                0           0           0           0           0           0           0           0           0           0
                0           0           0           0           0           0           0           0           0           0
                0           0           0           0           0           0           0           0           0           0
                0           0           0           0           0           0           0           0           0           0
                0           0           0           0           0           0           0           0           0           0
                0           0           0           0           0           0           0           0           0
   6            0           0           0           0           0           0           0           0           0           0
                0           0           0           0           0           0           0           0           0           0
                0           1           1           1           1           1           1           1           1           1
                0           0           0           0           0           0           1           1           1           1
                0           0           0           0           0           0           0           0           0           0
                0           0           0           0           0           0           0           0           0           0
                0           0           0           0           0           0           0           0           0           0
                0           0           0           0           0           0           0           0           0           0
                0           0           0           0           0           0           0           0           0           0
                0           0           0           0           0           0           0           0           0           0
                0           0           0           0           0           0           0           0           0           0
                0           0           0           0           0           0           0           0           0           0
                0           0           0           0           0           0           0           0           0           0
                0           0           0           0           0           0           0           0           0           0
                0           0           0           0           0           0           0           0           0           0
                0           0           0           0           0           0           0           0           0           0
                0           0           0           0           0           0           0           0           0           0
                0           0           0           0           0           0           0           0           0           0
                0           0           0           0           0           0           0           0           0           0
                0           0           0           0           0           0           0           0           0           0
                0           0           0           0           0           0           0           0           0           0
                0           0           0           0           0           0           0           0           0           0
                0           0           0           0           0           0           0           0           0           0
                0           0           0           0           0           0           0           0           0           0
                0           0           0           0           0           0           0           0           0           0
                0           0           0           0           0           0           0           0           0           0
                0           0           0           0           0           0           0           0           0           0
                0           0           0           0           0           0           0           0           0           0
                0           0           0           0           0           0           0           0           0           0
                0           0           0           0           0           0           0           0           0           0
                0           0           0           0           0           0           0           0           0           0
                0           0           0           0           0           0           0           0           0           0
                0           0           0           0           0           0           0           0           0           0
                0           0           0           0           0           0           0           0           0           0
                0           0           0           0           0           0           0           0           0           0
                0           0           0           0           0           0           0           0           0           0
                0           0           0           0           0           0           0           0           0
   7            0           0           0           0           0           0           0           0           0           0
                0           0           0           0           0           0           0           0           0           0
                0           1           1           1           1           1           1           1           1           1
                1           1           1           1           1           1           1           1           1           1
                1           1           1           0           0           0           0           0           0           0
                0           0           0           0           0           0           0           0           0           0
                0           0           0           0           0           0           0           0           0           0
                0           0           0           0           0           0           0           0           0           0
                0           0           0           0           0           0           0           0           0           0
                0           0           0           0           0           0           0           0           0           0
                0           0           0           0           0           0           0           0           0           0
                0           0           0           0           0           0           0           0           0           0
                0           0           0           0           0           0           0           0           0           0
                0           0           0           0           0           0           0           0           0           0
                0           0           0           0           0           0           0           0           0           0
                0           0           0           0           0           0           0           0           0           0
                0           0           0           0           0           0           0           0           0           1
                1           1           1           1           1           1           1           1           1           1
                1           0           0           0           0           0           0           0           0           0
                0           0           0           0           0           0           0           0           0           0
                0           0           0           0           0           0           0           0           0           0
                0           0           0           0           0           0           0           0           0           0
                0           0           0           0           0           0           0           0           0           0
                0           0           0           0           0           0           0           0           0           0
                0           0           0           0           0           0           0           0           0           0
                0           0           0           0           0           0           0           0           0           0
                0           0           0           0           0           0           0           0           0           0
                0           0           0           0           0           0           0           0           0           0
                0           0           0           0           0           0           0           0           0           0
                0           0           0           0           0           0           0           0           0           0
                0           0           0           0           0           0           0           0           0           0
                0           0           0           0           0           0           0           0           0           0
                0           0           0           0           0           0           0           0           0           0
                0           0           0           0           0           0           0           0           0           0
                0           0           0           0           0           0           0           0           0           0
                0           0           0           0           0           0           0           0           0           0
                0           0           0           0           0           0           0           0           0
   8            0           0           0           0           0           0           0           0           0           0
                0           0           0           0           0           0           0           0           0           0
                0           0           1           1           1           1           1           1           1           1
                1           1           1           1           1           1           1           1           1           1
                1           1           1           1           0           0           0           0           0           0
                0           0           0           0           0           0           0           0           0           0
                0           0           0           0           0           0           0           0           0           0
                0           0           0           0           0           0           0           0           0           0
                0           0           0           0           0           0           0           0           0           0
                0           0           0           0           0           0           0           0           0           0
                0           0           0           0           0           0           0           0           0           0
                0           0           0           0           0           0           0           0           0           0
                0           0           0           0           0           0           0           0           0           0
                0           0           0           0           0           0           0           0           0           0
                0           0           0           0           0           0           0           0           0           0
                0           0           0           0           0           0           0           0           0           0
                0           0           0           0           0           0           0           1           1           1
                1           1           1           1           1           1           1           1           1           1
                1           1           1           1           1           1           1           0           0           0
                0           0           0           0           0           0           0           0           0           0
                0           0           0           0           0           0           0           0           0           0
                0           0           0           0           0           0           0           0           0           0
                0           0           0           0           0           0           0           0           0           0
                0           0           0           0           0           0           0           0           0           0
                0           0           0           0           0           0           0           0           0           0
                0           0           0           0           0           0           0           0           0           0
                0           0           0           0           0           0           0           0           0           0
                0           0           0           0           0           0           0           0           0           0
                0           0           0           0           0           0           0           0           0           0
                0           0           0           0           0           0           0           0           0           0
                0           0           0           0           0           0           0           0           0           0
                0           0           0           0           0           0           0           0           0           0
                0           0           0           0           0           0           0           0           0           0
                0           0           0           0           0           0           0           0           0           0
                0           0           0           0           0           0           0           0           0           0
                0           0           0           0           0           0           0           0           0           0
                0           0           0           0           0           0           0           0           0
   9            0           0           0           0           0           0           0           0           0           0
                0           0           0           0           0           0           0           0           0           0
                0           0           0           1           1           1           1           1           1           1
                1           1           1           1           1           1           1           1           1           1
                1           1           1           1           1           0           0           0           0           0
                0           0           0           0           0           0           0           0           0           0
                0           0           0           0           0           0           0           0           0           0
                0           0           0           0           0           0           0           0           0           0
                0           0           0           0           0           0           0           0           0           0
                0           0           0           0           0           0           0           0           0           0
                0           0           0           0           0           0           0           0           0           0
                0           0           0           0           0           0           0           0           0           0
                0           0           0           0           0           0           0           0           0           0
                0           0           0           0           0           0           0           0           0           0
                0           0           0           0           0           0           0           0           0           0
                0           0           0           0           0           0           0           0           0           0
                0           0           0           0           0           0           1           1           1           1
                1           1           1           1           1           1           1           1           1           1
                1           1           1           1           1           1           1           1           1           1
                1           0           0           0           0           0           0           0           0           0
                0           0           0           0           0           0           0           0           0           0
                0           0           0           0           0           0           0           0           0           0
                0           0           0           0           0           0           0           0           0           0
                0           0           0           0           0           0           0           0           0           0
                0           0           0           0           0           0           0           0           0           0
                0           0           0           0           0           0           0           0           0           0
                0           0           0           0           0           0           0           0           0           0
                0           0           0           0           0           0           0           0           0           0
                0           0           0           0           0           0           0           0           0           0
                0           0           0           0           0           0           0           0           0           0
                0           0           0           0           0           0           0           0           0           0
                0           0           0           0           0           0           0           0           0           0
                0           0           0           0           0           0           0           0           0           0
                0           0           0           0           0           0           0           0           0           0
                0           0           0           0           0           0           0           0           0           0
                0           0           0           0           0           0           0           0           0           0
                0           0           0           0           0           0           0           0           0
  10            0           0           0           0           0           0           0           0           0           0
                0           0           0           0           0           0           0           0           0           0
                0           0           0           0           1           1           1           1           1           1
                1           1           1           1           1           1           1           1           1           1
                1           1           1           1           1           1           0           0           0           0
                0           0           0           0           0           0           0           0           0           0
                0           0           0           0           0           0           0           0           0           0
                0           0           0           0           0           0           0           0           0           0
                0           0           0           0           0           0           0           0           0           0
                0           0           0           0           0           0           0           0           0           0
                0           0           0           0           0           0           0           0           0           0
                0           0           0           0           0           0           0           0           0           0
                0           0           0           0           0           0           0           0           0           0
                0           0           0           0           0           0           0           0           0           0
                0           0           0           0           0           0           0           0           0           0
                0           0           0           0           0           0           0           0           0           0
                0           0           0           0           0           0           1           1           1           1
                1           1           1           1           1           1           1           1           1           1
                1           1           1           1           1           1           1           1           1           1
                1           1           0           0           0           0           0           0           0           0
                0           0           0           0           0           0           0           0           0           0
                0           0           0           0           0           0           0           0           0           0
                0           0           0           0           0           0           0           0           0           0
                0           0           0           0           0           0           0           0           0           0
                0           0           0           0           0           0           0           0           0           0
                0           0           0           0           0           0           0           0           0           0
                0           0           0           0           0           0           0           0           0           0
                0           0           0           0           0           0           0           0           0           0
                0           0           0           0           0           0           0           0           0           0
                0           0           0           0           0           0           0           0           0           0
                0           0           0           0           0           0           0           0           0           0
                0           0           0           0           0           0           0           0           0           0
                0           0           0           0           0           0           0           0           0           0
                0           0           0           0           0           0           0           0           0           0
                0           0           0           0           0           0           0           0           0           0
                0           0           0           0           0           0           0           0           0           0
                0           0           0           0           0           0           0           0           0
  11            0           0           0           0           0           0           0           0           0           0
                0           0           0           0           0           0           0           0           0           0
                0           0           0           0           1           1           1           1           1           1
                1           1           1           1           1           1           1           1           1           1
                1           1           1           1           1           1           1           0           0           0
                0           0           0           0           0           0           0           0           0           0
                0           0           0           0           0           0           0           0           0           0
                0           0           0           0           0           0           0           0           0           0
                0           0           0           0           0           0           0           0           0           0
                0           0           0           0           0           0           0           0           0           0
                0           0           0           0           0           0           0           0           0           0
                0           0           0           0           0           0           0           0           0           0
                0           0           0           0           0           0           0           0           0           0
                0           0           0           0           0           0           0           0           0           0
                0           0           0           0           0           0           0           0           0           0
                0           0           0           0           0           0           0           0           0           0
                0           0           0           0           0           0           1           1           1           1
                1           1           1           1           1           1           1           1           1           1
                1           1           1           1           1           1           1           1           1           1
                1           1           0           0           0           0           0           0           0           0
                0           0           0           0           0           0           0           0           0           0
                0           0           0           0           0           0           0           0           0           0
                0           0           0           0           0           0           0           0           0           0
                0           0           0           0           0           0           0           0           0           0
                0           0           0           0           0           0           0           0           0           0
                0           0           0           0           0           0           0           0           0           0
                0           0           0           0           0           0           0           0           0           0
                0           0           0           0           0           0           0           0           0           0
                0           0           0           0           0           0           0           0           0           0
                0           0           0           0           0           0           0           0           0           0
                0           0           0           0           0           0           0           0           0           0
                0           0           0           0           0           0           0           0           0           0
                0           0           0           0           0           0           0           0           0           0
                0           0           0           0           0           0           0           0           0           0
                0           0           0           0           0           0           0           0           0           0
                0           0           0           0           0           0           0           0           0           0
                0           0           0           0           0           0           0           0           0
  12            0           0           0           0           0           0           0           0           0           0
                0           0           0           0           0           0           0           0           0           0
                0           0           0           0           0           1           1           1           1           1
                1           1           1           1           1           1           1           1           1           1
                1           1           1           1           1           1           1           1           1           1
                1           1           1           1           1           1           1           1           0           0
                0           0           0           0           0           0           0           0           0           0
                0           0           0           0           0           0           0           0           0           0
                0           0           0           0           0           0           0           0           0           0
                0           0           0           0           0           0           0           0           0           0
                0           0           0           0           0           0           0           0           0           0
                0           0           0           0           0           0           0           0           0           0
                0           0           0           0           0           0           0           0           0           0
                0           0           0           0           0           0           0           0           0           0
                0           0           0           0           0           0           0           0           0           0
                0           0           0           0           0           0           0           0           0           0
                0           0           0           0           0           1           1           1           1           1
                1           1           1           1           1           1           1           1           1           1
                1           1           1           1           1           1           1           1           1           1
                1           1           1           0           0           0           0           0           0           0
                0           0           0           0           0           0           0           0           0           0
                0           0           0           0           0           0           0           0           0           0
                0           0           0           0           0           0           0           0           0           0
                0           0           0           0           0           0           0           0           0           0
                0           0           0           0           0           0           0           0           0           0
                0           0           0           0           0           0           0           0           0           0
                0           0           0           0           0           0           0           0           0           0
                0           0           0           0           0           0           0           0           0           0
                0           0           0           0           0           0           0           0           0           0
                0           0           0           0           0           0           0           0           0           0
                0           0           0           0           0           0           0           0           0           0
                0           0           0           0           0           0           0           0           0           0
                0           0           0           0           0           0           0           0           0           0
                0           0           0           0           0           0           0           0           0           0
                0           0           0           0           0           0           0           0           0           0
                0           0           0           0           0           0           0           0           0           0
                0           0           0           0           0           0           0           0           0
  13            0           0           0           0           0           0           0           0           0           0
                0           0           0           0           0           0           0           0           0           0
                0           0           0           0           0           1           1           1           1           1
                1           1           1           1           1           1           1           1           1           1
                1           1           1           1           1           1           1           1           1           1
                1           1           1           1           1           1           1           1           1           0
                0           0           1           1           1           1           1           1           1           0
                0           0           0           0           0           0           0           0           0           0
                0           0           0           0           0           0           0           0           0           0
                0           0           0           0           0           0           0           0           0           0
                0           0           0           0           0           0           0           0           0           0
                0           0           0           0           0           0           0           0           0           0
                0           0           0           0           0           0           0           0           0           0
                0           0           0           0           0           0           0           0           0           0
                0           0           0           0           0           0           0           0           0           0
                0           0           0           0           0           0           0           0           0           0
                0           0           0           0           1           1           1           1           1           1
                1           1           1           1           1           1           1           1           1           1
                1           1           1           1           1           1           1           1           1           1
                1           1           1           1           1           0           0           0           0           0
                0           0           0           0           0           0           0           0           0           0
                0           0           0           0           0           0           0           0           0           0
                0           0           0           0           0           0           0           0           0           0
                0           0           0           0           0           0           0           0           0           0
                0           0           0           0           0           0           0           0           0           0
                0           0           0           0           0           0           0           0           0           0
                0           0           0           0           0           0           0           0           0           0
                0           0           0           0           0           0           0           0           0           0
                0           0           0           0           0           0           0           0           0           0
                0           0           0           0           0           0           0           0           0           0
                0           0           0           0           0           0           0           0           0           0
                0           0           0           0           0           0           0           0           0           0
                0           0           0           0           0           0           0           0           0           0
                0           0           0           0           0           0           0           0           0           0
                0           0           0           0           0           0           0           0           0           0
                0           0           0           0           0           0           0           0           0           0
                0           0           0           0           0           0           0           0           0
  14            0           0           0           0           0           0           0           0           0           0
                0           0           0           0           0           0           0           0           0           0
                0           0           0           0           0           1           1           1           1           1
                1           1           1           1           1           1           1           1           1           1
                1           1           1           1           1           1           1           1           1           1
                1           1           1           1           1           1           1           1           1           1
                1           1           1           1           1           1           1           1           1           1
                1           1           1           0           0           0           0           0           0           0
                0           0           0           0           0           0           0           0           0           0
                0           0           0           0           0           0           0           0           0           0
                0           0           0           0           0           0           0           0           0           0
                0           0           0           0           0           0           0           0           0           0
                0           0           0           0           0           0           0           0           0           0
                0           0           0           0           0           0           0           0           0           0
                0           0           0           0           0           0           0           0           0           0
                0           0           0           0           0           0           0           0           0           0
                0           0           0           1           1           1           1           1           1           1
                1           1           1           1           1           1           1           1           1           1
                1           1           1           1           1           1           1           1           1           1
                1           1           1           1           1           1           0           0           0           0
                0           0           0           0           0           0           0           0           0           0
                0           0           0           0           0           0           0           0           0           0
                0           0           0           0           0           0           0           0           0           0
                0           0           0           0           0           0           0           0           0           0
                0           0           0           0           0           0           0           0           0           0
                0           0           0           0           0           0           0           0           0           0
                0           0           0           0           0           0           0           0           0           0
                0           0           0           0           0           0           0           0           0           0
                0           0           0           0           0           0           0           0           0           0
                0           0           0           0           0           0           0           0           0           0
                0           0           0           0           0           0           0           0           0           0
                0           0           0           0           0           0           0           0           0           0
                0           0           0           0           0           0           0           0           0           0
                0           0           0           0           0           0           0           0           0           0
                0           0           0           0           0           0           0           0           0           0
                0           0           0           0           0           0           0           0           0           0
                0           0           0           0           0           0           0           0           0
  15            0           0           0           0           0           0           0           0           0           0
                0           0           0           0           0           0           0           0           0           0
                0           0           0           0           0           1           1           1           1           1
                1           1           1           1           1           1           1           1           1           1
                1           1           1           1           1           1           1           1           1           1
                1           1           1           1           1           1           1           1           1           1
                1           1           1           1           1           1           1           1           1           1
                1           1           1           1           1           1           1           1           1           1
                1           1           0           0           0           0           0           0           0           0
                0           0           0           0           0           0           0           0           0           0
                0           0           0           0           0           0           0           0           0           0
                0           0           0           0           0           0           0           0           0           0
                0           0           0           0           0           0           0           0           0           0
                0           0           0           0           0           0           0           0           0           0
                0           0           0           0           0           0           0           0           0           0
                0           0           0           0           0           0           0           0           0           0
                0           0           0           1           1           1           1           1           1           1
                1           1           1           1           1           1           1           1           1           1
                1           1           1           1           1           1           1           1           1           1
                1           1           1           1           1           1           1           0           0           0
                0           0           0           0           0           0           0           0           0           0
                0           0           0           0           0           0           0           0           0           0
                0           0           0           0           0           0           0           0           0           0
                0           0           0           0           0           0           0           0           0           0
                0           0           0           0           0           0           0           0           0           0
                0           0           0           0           0           0           0           0           0           0
                0           0           0           0           0           0           0           0           0           0
                0           0           0           0           0           0           0           0           0           0
                0           0           0           0           0           0           0           0           0           0
                0           0           0           0           0           0           0           0           0           0
                0           0           0           0           0           0           0           0           0           0
                0           0           0           0           0           0           0           0           0           0
                0           0           0           0           0           0           0           0           0           0
                0           0           0           0           0           0           0           0           0           0
                0           0           0           0           0           0           0           0           0           0
                0           0           0           0           0           0           0           0           0           0
                0           0           0           0           0           0           0           0           0
  16            0           0           0           0           0           0           0           0           0           0
                0           0           0           0           0           0           0           0           0           0
                0           0           0           0           0           1           1           1           1           1
                1           1           1           1           1           1           1           1           1           1
                1           1           1           1           1           1           1           1           1           1
                1           1           1           1           1           1           1           1           1           1
                1           1           1           1           1           1           1           1           1           1
                1           1           1           1           1           1           1           1           1           1
                1           1           1           0           0           0           0           0           0           0
                0           0           0           0           0           0           0           0           0           0
                0           0           0           0           0           0           0           0           0           0
                0           0           0           0           0           0           0           0           0           0
                0           0           0           0           0           0           0           0           0           0
                0           0           0           0           0           0           0           0           0           0
                0           0           0           0           0           0           0           0           0           0
                0           0           0           0           0           0           0           0           0           0
                0           0           0           1           1           1           1           1           1           1
                1           1           1           1           1           1           1           1           1           1
                1           1           1           1           1           1           1           1           1           1
                1           1           1           1           1           1           1           1           0           0
                0           0           0           0           0           0           0           0           0           0
[...]
      1     85    240
      1     85    240
      1     84    240
      1     83    240
      1     82    240
      1     81    239
      1     80    239
      1     79    239
      1     78    239
      1     77    239
      1     76    239
      1     75    239
      1     74    238
      1     73    238
      1     72    238
     15 OF THE     57 REACHES OR CELLS USED TO SIMULATE THE GAIN OR LOSS ARE
                      AFFECTED.

 DATA AT HEAD LOCATIONS

        OBSERVATION     OBSER-     SIMUL.                          WEIGHTED
   OBS#    NAME         VATION     EQUIV.    RESIDUAL  WEIGHT**.5  RESIDUAL
                          *          *
      1 hed1            1.41      0.901      0.509      0.164      0.837E-01
      2 hed2            1.51       1.87     -0.358      0.164     -0.589E-01
      3 hed3            1.30      0.709      0.591      0.164      0.971E-01
      4 hed4           0.600      0.836     -0.236      0.164     -0.388E-01
      5 hed5           0.550      0.899     -0.349      0.164     -0.573E-01
      6 hed6           0.520      0.861     -0.341      0.164     -0.560E-01
      7 hed7           0.370      0.633     -0.263      0.164     -0.433E-01
      8 hed8           0.360      0.612     -0.252      0.164     -0.415E-01
      9 hed9           0.340      0.517     -0.177      0.164     -0.291E-01
     10 hed10          0.340      0.481     -0.141      0.164     -0.232E-01
     11 hed11          0.300      0.648     -0.348      0.164     -0.573E-01
     12 hed12          0.390      0.943     -0.553      0.164     -0.910E-01
     13 hed13          0.710      0.812     -0.102      0.164     -0.168E-01
     14 hed14          0.750      0.791     -0.406E-01  0.164     -0.668E-02
     15 hed15          0.500       1.38     -0.882      0.164     -0.145    
     16 hed16          0.810       1.21     -0.397      0.164     -0.652E-01
     17 hed17          0.760       1.33     -0.573      0.164     -0.943E-01
     18 hed18          0.750      0.823     -0.726E-01  0.164     -0.119E-01
     19 hed19           1.90       3.09      -1.19      0.164     -0.196    
     20 hed20           1.59      0.796      0.794      0.164      0.131    
     21 hed21           3.27       3.42     -0.149      0.164     -0.245E-01
     22 hed22           2.26       3.74      -1.48      0.164     -0.243    
     23 hed23           3.57       3.60     -0.342E-01  0.164     -0.562E-02
     24 hed24          0.910       1.31     -0.396      0.164     -0.652E-01
     25 hed25           3.73         OMITTED
     26 hed26           3.56       3.49      0.732E-01  0.164      0.120E-01
     27 hed27           1.73       1.60      0.127      0.164      0.209E-01
     28 hed28           2.04      0.635       1.41      0.164      0.231    
     29 hed29           1.72       3.37      -1.65      0.164     -0.271    
     30 hed30           1.74       1.10      0.641      0.164      0.105    
     31 hed31           2.74       4.34      -1.60      0.164     -0.264    
     32 hed32          0.180      0.857     -0.677      0.164     -0.111    
     33 hed33           2.23      0.519       1.71      0.164      0.281    
     34 hed34           1.41      0.901      0.509      0.329      0.167    
     35 hed35           1.51       1.87     -0.358      0.329     -0.118    
     36 hed36           1.30      0.709      0.591      0.329      0.194    
     37 hed37          0.600      0.836     -0.236      0.329     -0.777E-01
     38 hed38          0.550      0.899     -0.349      0.329     -0.115    
     39 hed39          0.520      0.861     -0.341      0.329     -0.112    
     40 hed40          0.370      0.633     -0.263      0.329     -0.865E-01
     41 hed41          0.360      0.612     -0.252      0.329     -0.830E-01
     42 hed42          0.340      0.517     -0.177      0.329     -0.583E-01
     43 hed43          0.340      0.481     -0.141      0.329     -0.464E-01
     44 hed44          0.300      0.648     -0.348      0.329     -0.115    
     45 hed45          0.390      0.943     -0.553      0.329     -0.182    
     46 hed46          0.710      0.812     -0.102      0.329     -0.335E-01
     47 hed47          0.750      0.791     -0.406E-01  0.329     -0.134E-01
     48 hed48          0.500       1.38     -0.882      0.329     -0.290    
     49 hed49          0.810       1.21     -0.397      0.329     -0.130    
     50 hed50          0.760       1.33     -0.573      0.329     -0.189    
     51 hed51          0.750      0.823     -0.726E-01  0.329     -0.239E-01
     52 hed52           1.90       3.09      -1.19      0.329     -0.392    
     53 hed53           1.59      0.796      0.794      0.329      0.261    
     54 hed54           3.27       3.42     -0.149      0.329     -0.490E-01
     55 hed55           2.26       3.74      -1.48      0.329     -0.487    
     56 hed56           3.57       3.60     -0.342E-01  0.329     -0.112E-01
     57 hed57          0.910       1.31     -0.396      0.329     -0.130    
     58 hed58           3.73         OMITTED
     59 hed59           3.56       3.49      0.732E-01  0.329      0.241E-01
     60 hed60           1.73       1.60      0.127      0.329      0.419E-01
     61 hed61           2.04      0.635       1.41      0.329      0.462    
     62 hed62           1.72       3.37      -1.65      0.329     -0.543    
     63 hed63           1.74       1.10      0.641      0.329      0.211    
     64 hed64           2.74       4.34      -1.60      0.329     -0.528    
     65 hed65          0.180      0.857     -0.677      0.329     -0.223    
     66 hed66           2.23      0.519       1.71      0.329      0.563    
     67 hed67           1.41      0.901      0.509       3.29       1.67    
     68 hed68           1.51       1.87     -0.358       3.29      -1.18    
     69 hed69           1.30      0.709      0.591       3.29       1.94    
     70 hed70          0.600      0.836     -0.236       3.29     -0.777    
     71 hed71          0.550      0.899     -0.349       3.29      -1.15    
     72 hed72          0.520      0.861     -0.341       3.29      -1.12    
     73 hed73          0.370      0.633     -0.263       3.29     -0.865    
     74 hed74          0.360      0.612     -0.252       3.29     -0.830    
     75 hed75          0.340      0.517     -0.177       3.29     -0.583    
     76 hed76          0.340      0.481     -0.141       3.29     -0.464    
     77 hed77          0.300      0.648     -0.348       3.29      -1.15    
     78 hed78          0.390      0.943     -0.553       3.29      -1.82    
     79 hed79          0.710      0.812     -0.102       3.29     -0.335    
     80 hed80          0.750      0.791     -0.406E-01   3.29     -0.134    
     81 hed81          0.500       1.38     -0.882       3.29      -2.90    
     82 hed82          0.810       1.21     -0.397       3.29      -1.30    
     83 hed83          0.760       1.33     -0.573       3.29      -1.89    
     84 hed84          0.750      0.823     -0.726E-01   3.29     -0.239    
     85 hed85           1.90       3.09      -1.19       3.29      -3.92    
     86 hed86           1.59      0.796      0.794       3.29       2.61    
     87 hed87           2.26       4.98      -2.72       3.29      -8.95    
     88 hed88           3.57       3.81     -0.235       3.29     -0.774    
     89 hed89          0.910       1.31     -0.396       3.29      -1.30    
     90 hed90           301.       288.       13.9       3.29       45.9    
     91 hed91           264.       269.      -4.95       3.29      -16.3    
     92 hed92           289.       322.      -33.5       3.29      -110.    
     93 hed93           3.56       3.49      0.732E-01   3.29      0.241    
     94 hed94           1.73       1.60      0.127       3.29      0.419    
     95 hed95           2.04      0.635       1.41       3.29       4.62    
     96 hed96           1.72       3.37      -1.65       3.29      -5.43    
     97 hed97           1.74       1.10      0.641       3.29       2.11    
     98 hed98           2.74       4.34      -1.60       3.29      -5.28    
     99 hed99          0.180      0.857     -0.677       3.29      -2.23    
    100 hed100          2.23      0.519       1.71       3.29       5.63    
    101 hed101          1.41      0.901      0.509       3.29       1.67    
    102 hed102          1.51       1.87     -0.358       3.29      -1.18    
    103 hed103          1.30      0.709      0.591       3.29       1.94    
    104 hed104         0.600      0.836     -0.236       3.29     -0.777    
    105 hed105         0.550      0.899     -0.349       3.29      -1.15    
    106 hed106         0.520      0.861     -0.341       3.29      -1.12    
    107 hed107         0.370      0.633     -0.263       3.29     -0.865    
    108 hed108         0.360      0.612     -0.252       3.29     -0.830    
    109 hed109         0.340      0.517     -0.177       3.29     -0.583    
    110 hed110         0.340      0.481     -0.141       3.29     -0.464    
    111 hed111         0.300      0.648     -0.348       3.29      -1.15    
    112 hed112         0.390      0.943     -0.553       3.29      -1.82    
    113 hed113         0.710      0.812     -0.102       3.29     -0.335    
    114 hed114         0.750      0.791     -0.406E-01   3.29     -0.134    
    115 hed115         0.500       1.38     -0.882       3.29      -2.90    
    116 hed116         0.810       1.21     -0.397       3.29      -1.30    
    117 hed117         0.760       1.33     -0.573       3.29      -1.89    
    118 hed118         0.750      0.823     -0.726E-01   3.29     -0.239    
    119 hed119          1.90       3.09      -1.19       3.29      -3.92    
    120 hed120          1.59      0.796      0.794       3.29       2.61    
    121 hed121          2.26       4.98      -2.72       3.29      -8.95    
    122 hed122          3.57       3.81     -0.235       3.29     -0.774    
    123 hed123         0.910       1.31     -0.396       3.29      -1.30    
    124 hed124          3.56       3.49      0.732E-01   3.29      0.241    
    125 hed125          1.73       1.60      0.127       3.29      0.419    
    126 hed126          2.04      0.635       1.41       3.29       4.62    
    127 hed127          1.72       3.37      -1.65       3.29      -5.43    
    128 hed128          1.74       1.10      0.641       3.29       2.11    
    129 hed129          2.74       4.34      -1.60       3.29      -5.28    
    130 hed130         0.180      0.857     -0.677       3.29      -2.23    
    131 hed131          2.23      0.519       1.71       3.29       5.63    

 * THE OBSERVATION (AND CORRESPONDING SIMULATED EQUIVALENT) IS HEAD OR TEMPORAL
   CHANGE IN HEAD, AS SPECIFIED IN THE "HOB" INPUT FILE.  NEGATIVE TEMPORAL
   CHANGES INDICATE DRAWDOWN.

 STATISTICS FOR HEAD RESIDUALS :
 MAXIMUM WEIGHTED RESIDUAL  :  45.9     OBS#     90
 MINIMUM WEIGHTED RESIDUAL  : -110.     OBS#     92
 AVERAGE WEIGHTED RESIDUAL  : -1.04    
 # RESIDUALS >= 0. :     33
 # RESIDUALS < 0.  :     96
 NUMBER OF RUNS  :   43  IN  129 OBSERVATIONS

 SUM OF SQUARED WEIGHTED RESIDUALS (HEADS ONLY)   15042.    

 DATA FOR FLOWS REPRESENTED USING THE DRAIN PACKAGE

       OBSERVATION      MEAS.      CALC.                          WEIGHTED
  OBS#    NAME          FLOW       FLOW     RESIDUAL  WEIGHT**.5  RESIDUAL

   132 no_dr0          1.00     -0.258E+04  0.258E+04  0.100E-17  0.258E-14
   133 no_dr1          1.00     -0.286E+04  0.286E+04  0.100E-17  0.286E-14
   134 no_dr2          1.00     -0.163E+04  0.163E+04  0.100E-17  0.163E-14
   135 no_dr3          1.00      -881.       882.      0.100E-17  0.882E-15
   136 no_dr4          1.00     -0.141E+04  0.141E+04  0.100E-17  0.141E-14
   137 no_dr5          1.00      -819.       820.      0.100E-17  0.820E-15
   138 no_dr6          1.00      -140.       141.      0.100E-17  0.141E-15
   139 no_dr7          1.00      -368.       369.      0.100E-17  0.369E-15
   140 no_dr8          1.00     -0.187E+04  0.187E+04  0.100E-17  0.187E-14
   141 no_dr9          1.00     -0.939E+04  0.939E+04  0.100E-17  0.939E-14
   142 no_dr10         1.00     -0.309E+04  0.309E+04  0.100E-17  0.309E-14
   143 no_dr11         1.00      -617.       618.      0.100E-17  0.618E-15
   144 no_dr12         1.00     -0.143E+04  0.144E+04  0.100E-17  0.144E-14
   145 no_dr13         1.00     -0.869E+04  0.869E+04  0.100E-17  0.869E-14
   146 no_dr14         1.00     -0.103E+05  0.103E+05  0.100E-17  0.103E-13
   147 no_dr15         1.00     -0.114E+05  0.114E+05  0.100E-17  0.114E-13
   148 no_dr16         1.00     -0.651E+04  0.652E+04  0.100E-17  0.652E-14
   149 no_dr17         1.00     -0.352E+04  0.353E+04  0.100E-17  0.353E-14
   150 no_dr18         1.00     -0.564E+04  0.564E+04  0.100E-17  0.564E-14
   151 no_dr19         1.00     -0.328E+04  0.328E+04  0.100E-17  0.328E-14
   152 no_dr20         1.00     -0.559E+04  0.559E+04  0.100E-17  0.559E-14
   153 no_dr21         1.00     -0.147E+04  0.147E+04  0.100E-17  0.147E-14
   154 no_dr22         1.00     -0.749E+04  0.749E+04  0.100E-17  0.749E-14
   155 no_dr23         1.00     -0.375E+05  0.375E+05  0.100E-17  0.375E-13
   156 no_dr24         1.00     -0.124E+05  0.124E+05  0.100E-17  0.124E-13
   157 no_dr25         1.00     -0.247E+04  0.247E+04  0.100E-17  0.247E-14
   158 no_dr26         1.00     -0.574E+04  0.574E+04  0.100E-17  0.574E-14
   159 no_dr27         1.00     -0.869E+04  0.869E+04  0.100E-17  0.869E-14

 STATISTICS FOR DRAIN FLOW RESIDUALS :
 MAXIMUM WEIGHTED RESIDUAL  : 0.375E-13 OBS#    155
 MINIMUM WEIGHTED RESIDUAL  : 0.141E-15 OBS#    138
 AVERAGE WEIGHTED RESIDUAL  : 0.564E-14
 # RESIDUALS >= 0. :     28
 # RESIDUALS < 0.  :      0
 NUMBER OF RUNS:      1  IN     28 OBSERVATIONS

 SUM OF SQUARED WEIGHTED RESIDUALS (DRAIN FLOWS ONLY)  0.23016E-26

 DATA FOR FLOW OBSERVATIONS AT BOUNDARIES REPRESENTED AS CONSTANT-HEAD

       OBSERVATION      MEAS.      CALC.                          WEIGHTED
  OBS#    NAME          FLOW       FLOW     RESIDUAL  WEIGHT**.5  RESIDUAL

   160 no_ch0          1.00     -0.365E+05  0.365E+05  0.100E-17  0.365E-13
   161 no_ch1          1.00     -0.894E+04  0.894E+04  0.100E-17  0.894E-14
   162 no_ch2          1.00     -0.231E+05  0.231E+05  0.100E-17  0.231E-13
   163 no_ch3          1.00     -0.671E+05  0.671E+05  0.100E-17  0.671E-13
   164 no_ch4          1.00     -0.388E+06  0.388E+06  0.100E-17  0.388E-12
   165 no_ch5          1.00     -0.237E+05  0.237E+05  0.100E-17  0.237E-13
   166 no_ch6          1.00     -0.124E+04  0.124E+04  0.100E-17  0.124E-14
   167 no_ch7          1.00     -0.409E+04  0.409E+04  0.100E-17  0.409E-14
   168 no_ch8          1.00     -0.438E+04  0.438E+04  0.100E-17  0.438E-14
   169 no_ch9          1.00     -0.338E+04  0.338E+04  0.100E-17  0.338E-14
   170 no_ch10         1.00     -0.365E+05  0.365E+05  0.100E-17  0.365E-13
   171 no_ch11         1.00     -0.894E+04  0.894E+04  0.100E-17  0.894E-14
   172 no_ch12         1.00     -0.231E+05  0.231E+05  0.100E-17  0.231E-13
   173 no_ch13         1.00     -0.671E+05  0.671E+05  0.100E-17  0.671E-13
   174 no_ch14         1.00     -0.388E+06  0.388E+06  0.100E-17  0.388E-12
   175 no_ch15         1.00     -0.237E+05  0.237E+05  0.100E-17  0.237E-13
   176 no_ch16         1.00     -0.124E+04  0.124E+04  0.100E-17  0.124E-14
   177 no_ch17         1.00     -0.409E+04  0.409E+04  0.100E-17  0.409E-14
   178 no_ch18         1.00     -0.438E+04  0.438E+04  0.100E-17  0.438E-14
   179 no_ch19         1.00     -0.338E+04  0.338E+04  0.100E-17  0.338E-14

 STATISTICS FOR CONSTANT-HEAD BOUNDARY FLOW RESIDUALS :
 MAXIMUM WEIGHTED RESIDUAL  : 0.388E-12 OBS#    164
 MINIMUM WEIGHTED RESIDUAL  : 0.124E-14 OBS#    166
 AVERAGE WEIGHTED RESIDUAL  : 0.560E-13
 # RESIDUALS >= 0. :     20
 # RESIDUALS < 0.  :      0
 NUMBER OF RUNS  :    1  IN   20 OBSERVATIONS

 SUM OF SQUARED WEIGHTED RESIDUALS
   (CONSTANT-HEAD BOUNDARY FLOWS ONLY)  0.31474E-24

 SUM OF SQUARED WEIGHTED RESIDUALS (ALL DEPENDENT VARIABLES)   15042.    

 STATISTICS FOR ALL RESIDUALS :
 AVERAGE WEIGHTED RESIDUAL  :-0.760E+00
 # RESIDUALS >= 0. :     81
 # RESIDUALS < 0.  :     96
 NUMBER OF RUNS  :   43  IN  177 OBSERVATIONS

 INTERPRETING THE CALCULATED RUNS STATISTIC VALUE OF     -6.89    
 NOTE: THE FOLLOWING APPLIES ONLY IF 
        # RESIDUALS >= 0 . IS GREATER THAN 10 AND 
        # RESIDUALS < 0.   IS GREATER THAN 10
 THE NEGATIVE VALUE MAY INDICATE TOO FEW RUNS:
    IF THE VALUE IS LESS THAN -1.28, THERE IS LESS THAN A 10 PERCENT
       CHANCE THE VALUES ARE RANDOM,
    IF THE VALUE IS LESS THAN -1.645, THERE IS LESS THAN A 5 PERCENT
       CHANCE THE VALUES ARE RANDOM,
    IF THE VALUE IS LESS THAN -1.96, THERE IS LESS THAN A 2.5 PERCENT
       CHANCE THE VALUES ARE RANDOM.


 ORDERED DEPENDENT-VARIABLE WEIGHTED RESIDUALS
 NUMBER OF RESIDUALS INCLUDED:       177
     -110.      -16.3      -8.95      -8.95      -5.43      -5.43      -5.28    
     -5.28      -3.92      -3.92      -2.90      -2.90      -2.23      -2.23    
     -1.89      -1.89      -1.82      -1.82      -1.30      -1.30      -1.30    
     -1.30      -1.18      -1.18      -1.15      -1.15      -1.15      -1.15    
     -1.12      -1.12     -0.865     -0.865     -0.830     -0.830     -0.777    
    -0.777     -0.774     -0.774     -0.583     -0.583     -0.543     -0.528    
    -0.487     -0.464     -0.464     -0.392     -0.335     -0.335     -0.290    
    -0.271     -0.264     -0.243     -0.239     -0.239     -0.223     -0.196    
    -0.189     -0.182     -0.145     -0.134     -0.134     -0.130     -0.130    
    -0.118     -0.115     -0.115     -0.112     -0.111     -0.943E-01 -0.910E-01
    -0.865E-01 -0.830E-01 -0.777E-01 -0.652E-01 -0.652E-01 -0.589E-01 -0.583E-01
    -0.573E-01 -0.573E-01 -0.560E-01 -0.490E-01 -0.464E-01 -0.433E-01 -0.415E-01
    -0.388E-01 -0.335E-01 -0.291E-01 -0.245E-01 -0.239E-01 -0.232E-01 -0.168E-01
    -0.134E-01 -0.119E-01 -0.112E-01 -0.668E-02 -0.562E-02  0.141E-15  0.369E-15
     0.618E-15  0.820E-15  0.882E-15  0.124E-14  0.124E-14  0.141E-14  0.144E-14
     0.147E-14  0.163E-14  0.187E-14  0.247E-14  0.258E-14  0.286E-14  0.309E-14
     0.328E-14  0.338E-14  0.338E-14  0.353E-14  0.409E-14  0.409E-14  0.438E-14
     0.438E-14  0.559E-14  0.564E-14  0.574E-14  0.652E-14  0.749E-14  0.869E-14
     0.869E-14  0.894E-14  0.894E-14  0.939E-14  0.103E-13  0.114E-13  0.124E-13
     0.231E-13  0.231E-13  0.237E-13  0.237E-13  0.365E-13  0.365E-13  0.375E-13
     0.671E-13  0.671E-13  0.388E-12  0.388E-12  0.120E-01  0.209E-01  0.241E-01
     0.419E-01  0.837E-01  0.971E-01  0.105      0.131      0.167      0.194    
     0.211      0.231      0.241      0.241      0.261      0.281      0.419    
     0.419      0.462      0.563       1.67       1.67       1.94       1.94    
      2.11       2.11       2.61       2.61       4.62       4.62       5.63    
      5.63       45.9    

 CORRELATION BETWEEN ORDERED WEIGHTED RESIDUALS AND NORMAL ORDER STATISTICS
 FOR OBSERVATIONS =    0.182    

 --------------------------------------------------------------------------
 COMMENTS ON THE INTERPRETATION OF THE CORRELATION BETWEEN
 WEIGHTED RESIDUALS AND NORMAL ORDER STATISTICS:

 The critical value for correlation at the 5% significance level is 0.985

 IF the reported CORRELATION is GREATER than the 5% critical value, ACCEPT
 the hypothesis that the weighted residuals are INDEPENDENT AND NORMALLY
 DISTRIBUTED at the 5% significance level.  The probability that this   
 conclusion is wrong is less than 5%.

 IF the reported correlation IS LESS THAN the 5% critical value REJECT the
 hypothesis that the weighted residuals are INDEPENDENT AND NORMALLY
 DISTRIBUTED at the 5% significance level.

 The analysis can also be done using the 10% significance level.
 The associated critical value is 0.987
 --------------------------------------------------------------------------

